_cell_length_a  15
_cell_length_b  15
_cell_length_c  15

_cell_angle_alpha  90
_cell_angle_beta  90
_cell_angle_gamma  90

_symmetry_space_group_name_     'P 1'
_symmetry_space_group_name_H-M  'P 1'

loop_
_atom_site_label
_atom_site_type_symbol
_atom_site_fract_x
_atom_site_fract_y
_atom_site_fract_z
_atom_site_charge
O O 0.5949678777777778 0.479807388888889 0.7016336361111111 -0.4771091472919604
O O 0.33988941111111104 0.35899318888888904 0.31356276944444444 -0.24513028241614288
O O 0.5519340111111112 0.7078175222222222 0.43244776944444446 -0.4771091472919604
O O 0.48701894444444455 0.37738838888888904 0.7054327694444446 -0.24510612942483878
O O 0.3434464111111113 0.27984992222222227 0.44026996944444435 -0.47712412754006944
O O 0.5191393444444444 0.6411289222222222 0.3049478361111111 -0.24510612942483878
C C 0.5263925444444445 0.6365761888888889 0.3855577694444444 0.33764533689583753
C C 0.5278416111111109 0.43418725555555554 0.6645763694444443 0.33764533689583753
C C 0.3677279444444443 0.35011092222222223 0.3897728361111111 0.3368443783577026
H H 0.43189387777777777 0.5035397888888891 0.3263177694444444 0.06339353723244705
H H 0.43337687777777784 0.3372540555555556 0.5581114361111112 0.06339353723244705
C C 0.5069936111111111 0.5554648555555556 0.4389976361111112 0.07433043631478077
C C 0.4271132111111111 0.4129137888888888 0.43722416944444426 0.06042360223927377
C C 0.5086978111111111 0.45963918888888894 0.5704323027777778 0.07433043631478077
C C 0.5357992111111113 0.5395705222222222 0.528017836111111 0.08671682344709986
C C 0.4540258777777776 0.49090472222222237 0.39450736944444437 -0.03295036828747187
C C 0.4547618111111112 0.3971581888888888 0.5245748361111109 -0.03295036828747187
H H 0.3024258777777778 0.24535505555555576 0.40265216944444426 0.2954081530233327
H H 0.5874225444444445 0.47002492222222225 0.766014836111111 0.2954083960793794
H H 0.5736463444444445 0.7499845222222223 0.38753963611111125 0.2954083960793794
C C 0.5911613444444445 0.6078063222222223 0.5756627694444444 0.33840565704446157
O O 0.5711387444444445 0.6325400555555557 0.6506675027777776 -0.2450824820652778
O O 0.6635116111111111 0.6437538555555556 0.535713436111111 -0.4770944828182208
H H 0.6996731444444444 0.6882304555555555 0.5653645694444442 0.295408637691493
